Circuit: * C:\Users\bathu\AppData\Local\LTspice\ADDER_EN_TESTING.asc

Early termination of direct N-R iteration.
Direct Newton iteration failed to find .op point.  (Use ".option noopiter" to skip.)
Starting Gmin stepping
Gmin = 10
Gmin = 1.07374
Gmin = 0.115292
Gmin = 0.0123794
Gmin = 0.00132923
Gmin = 0.000142725
Gmin = 1.5325e-05
Gmin = 1.6455e-06
Gmin = 1.76685e-07
Gmin = 1.89714e-08
Gmin = 2.03704e-09
Gmin = 2.18725e-10
Gmin = 2.34854e-11
Gmin = 2.52173e-12
Gmin = 2.70769e-13
Gmin = 0
Gmin stepping succeeded in finding the operating point.


Date: Wed Dec  6 23:22:18 2023
Total elapsed time: 0.616 seconds.

tnom = 27
temp = 27
method = modified trap
totiter = 3646
traniter = 3282
tranpoints = 1119
accept = 1101
rejected = 18
matrix size = 168
fillins = 148
solver = Normal
Avg thread counts: 3.2/3.8/3.6/1.8
Matrix Compiler1: 36.48 KB object code size  10.8/5.6/[2.9]
Matrix Compiler2: 23.27 KB object code size  4.1/4.0/[1.7]

