Circuit: * C:\Users\bathu\AppData\Local\LTspice\ADDER_EN_SYM_TESTING.asc

Early termination of direct N-R iteration.
Direct Newton iteration failed to find .op point.  (Use ".option noopiter" to skip.)
Starting Gmin stepping
Gmin = 10
Gmin = 1.07374
Gmin = 0.115292
Gmin = 0.0123794
Gmin = 0.00132923
Gmin = 0.000142725
Gmin = 1.5325e-05
Gmin = 1.6455e-06
Gmin = 1.76685e-07
Gmin = 1.89714e-08
Gmin = 2.03704e-09
Gmin = 2.18725e-10
Gmin = 2.34854e-11
Gmin = 2.52173e-12
Gmin = 2.70769e-13
Gmin = 0
Gmin stepping succeeded in finding the operating point.


Date: Wed Dec  6 23:21:40 2023
Total elapsed time: 0.643 seconds.

tnom = 27
temp = 27
method = modified trap
totiter = 3668
traniter = 3304
tranpoints = 1127
accept = 1106
rejected = 21
matrix size = 168
fillins = 146
solver = Normal
Avg thread counts: 2.5/3.6/3.5/1.8
Matrix Compiler1: 36.33 KB object code size  9.7/5.8/[2.9]
Matrix Compiler2: 23.24 KB object code size  3.2/3.7/[1.4]

