Circuit: * C:\Users\bathu\AppData\Local\LTspice\AND_TESTING.asc

Direct Newton iteration for .op point succeeded.

Date: Wed Dec  6 12:31:41 2023
Total elapsed time: 0.206 seconds.

tnom = 27
temp = 27
method = modified trap
totiter = 3213
traniter = 3200
tranpoints = 1180
accept = 1147
rejected = 33
matrix size = 9
fillins = 0
solver = Normal
Avg thread counts: 1.9/3.3/3.3/1.9
Matrix Compiler1: 404 bytes object code size  0.4/0.2/[0.2]
Matrix Compiler2: 737 bytes object code size  0.2/0.3/[0.2]

