Circuit: * C:\Users\bathu\AppData\Local\LTspice\ASR_EN_TESTING.asc

Early termination of direct N-R iteration.
Direct Newton iteration failed to find .op point.  (Use ".option noopiter" to skip.)
Starting Gmin stepping
Gmin = 10
Gmin = 1.07374
Gmin = 0.115292
Gmin = 0.0123794
Gmin = 0.00132923
Gmin = 0.000142725
Gmin = 1.5325e-05
Gmin = 1.6455e-06
Gmin = 1.76685e-07
Gmin = 1.89714e-08
Gmin = 2.03704e-09
Gmin = 2.18725e-10
Gmin = 2.34854e-11
Gmin = 2.52173e-12
Gmin = 2.70769e-13
Gmin = 0
Gmin stepping succeeded in finding the operating point.


Date: Wed Dec  6 15:59:32 2023
Total elapsed time: 0.726 seconds.

tnom = 27
temp = 27
method = modified trap
totiter = 3535
traniter = 3171
tranpoints = 1090
accept = 1079
rejected = 11
matrix size = 229
fillins = 76
solver = Normal
Avg thread counts: 5.3/3.6/3.6/1.9
Matrix Compiler1: 38.26 KB object code size  10.9/6.4/[2.8]
Matrix Compiler2: 29.44 KB object code size  4.9/5.2/[2.3]

