Circuit: * C:\Users\bathu\AppData\Local\LTspice\DECODER_1_2_TESTING.asc

Direct Newton iteration for .op point succeeded.

Date: Wed Dec  6 13:21:12 2023
Total elapsed time: 0.203 seconds.

tnom = 27
temp = 27
method = modified trap
totiter = 3119
traniter = 3108
tranpoints = 1183
accept = 1148
rejected = 35
matrix size = 13
fillins = 0
solver = Normal
Avg thread counts: 1.9/3.3/3.3/1.9
Matrix Compiler1: 702 bytes object code size  0.6/0.3/[0.3]
Matrix Compiler2: 1.23 KB object code size  0.4/0.5/[0.3]

