Circuit: * C:\Users\bathu\AppData\Local\LTspice\DECODER2_4_TESTING.asc

Direct Newton iteration for .op point succeeded.

Date: Wed Dec  6 13:23:51 2023
Total elapsed time: 0.485 seconds.

tnom = 27
temp = 27
method = modified trap
totiter = 9243
traniter = 9216
tranpoints = 2009
accept = 1783
rejected = 226
matrix size = 34
fillins = 0
solver = Normal
Avg thread counts: 1.3/3.3/2.5/1.3
Matrix Compiler1: 2.61 KB object code size  1.2/0.9/[0.4]
Matrix Compiler2: 3.76 KB object code size  0.8/1.1/[0.7]

