Circuit: * C:\Users\bathu\AppData\Local\LTspice\FULL_ADDER_TESTING.asc

Direct Newton iteration failed to find .op point.  (Use ".option noopiter" to skip.)
Starting Gmin stepping
Gmin = 10
Gmin = 1.07374
Gmin = 0.115292
Gmin = 0.0123794
Gmin = 0.00132923
Gmin = 0.000142725
Gmin = 1.5325e-05
Gmin = 1.6455e-06
Gmin = 1.76685e-07
Gmin = 1.89714e-08
Gmin = 2.03704e-09
Gmin = 2.18725e-10
Gmin = 2.34854e-11
Gmin = 2.52173e-12
Gmin = 2.70769e-13
Gmin = 0
Gmin stepping succeeded in finding the operating point.

Heightened Def Con from 6.0005 ++++++++++++++++++++++to 6.0005
Heightened Def Con from 6.0005 +++++++++++++++++++++to 6.0005
Heightened Def Con from 6.0005 ++++++++++++++++++++to 6.0005
Heightened Def Con from 6.0005 ++++++++++++++++++++to 6.0005
Heightened Def Con from 6.0005 ++++++++++++++++++++to 6.0005
Heightened Def Con from 6.0005 ++++++++++++++++++++to 6.0005
Heightened Def Con from 6.0005 ++++++++++++++++++++to 6.0005
Heightened Def Con from 6.0005 ++++++++++++++++++++to 6.0005
Heightened Def Con from 6.0005 ++++++++++++++++++++to 6.0005
Heightened Def Con from 6.0005 ++++++++++++++++++++to 6.0005
Heightened Def Con from 6.0005 ++++++++++++++++++++to 6.0005
Heightened Def Con from 6.0005 ++++++++++++++++++++to 6.0005
Heightened Def Con from 6.0005 ++++++++++++++++++++to 6.0005
Heightened Def Con from 6.0005 ++++++++++++++++++++to 6.0005
Heightened Def Con from 6.0005 ++++++++++++++++++++to 6.0005
Heightened Def Con from 6.0005 ++++++++++++++++++++to 6.0005
Heightened Def Con from 6.0005 ++++++++++++++++++++to 6.0005
Heightened Def Con from 6.0005 ++++++++++++++++++++to 6.0005
Heightened Def Con from 6.0005 ++++++++++++++++++++to 6.0005
Heightened Def Con from 6.0005 ++++++++++++++++++++to 6.0005
Heightened Def Con from 6.0005 ++++++++++++++++++++to 6.0005
Heightened Def Con from 6.0005 ++++++++++++++++++++to 6.0005
Heightened Def Con from 6.0005 ++++++++++++++++++++to 6.0005
Heightened Def Con from 6.0005 ++++++++++++++++++++to 6.0005
Heightened Def Con from 6.0005 ++++++++++++++++++++to 6.0005
Heightened Def Con from 6.0005 +++++++++++++++++++to 6.0005
Heightened Def Con from 6.0005 +++++++++++++++++++to 6.0005
Heightened Def Con from 6.0005 +++++++++++++++++++to 6.0005
Heightened Def Con from 6.0005 +++++++++++++++++++to 6.0005
Heightened Def Con from 6.0005 +++++++++++++++++++to 6.0005
Heightened Def Con from 6.0005 +++++++++++++++++++to 6.0005
Heightened Def Con from 6.0005 +++++++++++++++++++to 6.0005
Heightened Def Con from 6.0005 +++++++++++++++++++to 6.0005
Heightened Def Con from 6.0005 +++++++++++++++++++to 6.0005
Heightened Def Con from 6.0005 +++++++++++++++++++to 6.0005
Heightened Def Con from 6.0005 +++++++++++++++++++to 6.0005
Heightened Def Con from 6.0005 +++++++++++++++++++to 6.0005
Heightened Def Con from 6.0005 +++++++++++++++++++to 6.0005
Heightened Def Con from 6.0005 +++++++++++++++++++to 6.0005
Heightened Def Con from 6.0005 +++++++++++++++++++to 6.0005
Heightened Def Con from 6.0005 +++++++++++++++++++to 6.0005
Heightened Def Con from 6.0005 +++++++++++++++++++to 6.0005
Heightened Def Con from 6.0005 +++++++++++++++++++to 6.0005
Heightened Def Con from 6.0005 +++++++++++++++++++to 6.0005
Heightened Def Con from 6.0005 +++++++++++++++++++to 6.0005
Heightened Def Con from 6.0005 +++++++++++++++++++to 6.0005
Heightened Def Con from 6.0005 +++++++++++++++++++to 6.0005
Heightened Def Con from 6.0005 +++++++++++++++++++to 6.0005
Heightened Def Con from 6.0005 +++++++++++++++++++to 6.0005
Heightened Def Con from 6.0005 +++++++++++++++++++to 6.0005
Heightened Def Con from 6.0005 +++++++++++++++++++to 6.0005
Heightened Def Con from 6.0005 +++++++++++++++++++to 6.0005
Heightened Def Con from 6.0005 +++++++++++++++++++to 6.0005
Heightened Def Con from 6.0005 +++++++++++++++++++to 6.0005
Heightened Def Con from 6.0005 +++++++++++++++++++to 6.0005
Heightened Def Con from 6.0005 +++++++++++++++++++to 6.0005
Heightened Def Con from 6.0005 +++++++++++++++++++to 6.0005
Heightened Def Con from 6.0005 +++++++++++++++++++to 6.0005
Heightened Def Con from 6.0005 +++++++++++++++++++to 6.0005
Heightened Def Con from 6.0005 +++++++++++++++++++to 6.0005
Heightened Def Con from 6.0005 +++++++++++++++++++to 6.0005
Heightened Def Con from 6.0005 +++++++++++++++++++to 6.0005
Heightened Def Con from 6.0005 +++++++++++++++++++to 6.0005
Heightened Def Con from 6.0005 +++++++++++++++++++to 6.0005
Heightened Def Con from 6.0005 +++++++++++++++++++to 6.0005
Heightened Def Con from 6.0005 +++++++++++++++++++to 6.0005
Heightened Def Con from 6.0005 +++++++++++++++++++to 6.0005
Heightened Def Con from 6.0005 +++++++++++++++++++to 6.0005
Heightened Def Con from 6.0005 +++++++++++++++++++to 6.0005
Heightened Def Con from 6.0005 +++++++++++++++++++to 6.0005
Heightened Def Con from 6.0005 +++++++++++++++++++to 6.0005
Heightened Def Con from 6.0005 +++++++++++++++++++to 6.0005
Heightened Def Con from 6.0005 +++++++++++++++++++to 6.0005
Heightened Def Con from 6.0005 +++++++++++++++++++to 6.0005
Heightened Def Con from 6.0005 +++++++++++++++++++to 6.0005
Heightened Def Con from 6.0005 +++++++++++++++++++to 6.0005
Heightened Def Con from 6.0005 +++++++++++++++++++to 6.0005
Heightened Def Con from 6.0005 +++++++++++++++++++to 6.0005
Heightened Def Con from 6.0005 +++++++++++++++++++to 6.0005
Heightened Def Con from 6.0005 +++++++++++++++++++to 6.0005
Heightened Def Con from 6.0005 +++++++++++++++++++to 6.0005
Heightened Def Con from 6.0005 +++++++++++++++++++to 6.0005
Heightened Def Con from 6.0005 +++++++++++++++++++to 6.0005
Heightened Def Con from 6.0005 +++++++++++++++++++to 6.0005
Heightened Def Con from 6.0005 +++++++++++++++++++to 6.0005
Heightened Def Con from 6.0005 +++++++++++++++++++to 6.0005
Heightened Def Con from 6.0005 +++++++++++++++++++to 6.0005
Heightened Def Con from 6.0005 +++++++++++++++++++to 6.0005
Heightened Def Con from 6.0005 +++++++++++++++++++to 6.0005
Heightened Def Con from 6.0005 +++++++++++++++++++to 6.0005
Heightened Def Con from 6.0005 +++++++++++++++++++to 6.0005
Heightened Def Con from 6.0005 +++++++++++++++++++to 6.0005
Heightened Def Con from 6.0005 +++++++++++++++++++to 6.0005
Heightened Def Con from 6.0005 +++++++++++++++++++to 6.0005
Heightened Def Con from 6.0005 +++++++++++++++++++to 6.0005
Heightened Def Con from 6.0005 +++++++++++++++++++to 6.0005
Heightened Def Con from 6.0005 +++++++++++++++++++to 6.0005
Heightened Def Con from 6.0005 +++++++++++++++++++to 6.0005
Heightened Def Con from 6.0005 +++++++++++++++++++to 6.0005
Heightened Def Con from 6.0005 +++++++++++++++++++to 6.0005
Heightened Def Con from 6.0005 +++++++++++++++++++to 6.0005
Heightened Def Con from 6.0005 +++++++++++++++++++to 6.0005
Heightened Def Con from 6.0005 +++++++++++++++++++to 6.0005
Heightened Def Con from 6.0005 +++++++++++++++++++to 6.0005
Heightened Def Con from 6.0005 +++++++++++++++++++to 6.0005
Heightened Def Con from 6.0005 +++++++++++++++++++to 6.0005
Heightened Def Con from 6.0005 +++++++++++++++++++to 6.0005
Heightened Def Con from 6.0005 +++++++++++++++++++to 6.0005
Heightened Def Con from 6.0005 +++++++++++++++++++to 6.0005
Heightened Def Con from 6.0005 +++++++++++++++++++to 6.0005
Heightened Def Con from 6.0005 +++++++++++++++++++to 6.0005
Heightened Def Con from 6.0005 +++++++++++++++++++to 6.0005
Heightened Def Con from 6.0005 +++++++++++++++++++to 6.0005
Heightened Def Con from 6.0005 +++++++++++++++++++to 6.0005
Heightened Def Con from 6.0005 +++++++++++++++++++to 6.0005
Heightened Def Con from 6.0005 +++++++++++++++++++to 6.0005
Heightened Def Con from 6.0005 +++++++++++++++++++to 6.0005
Heightened Def Con from 6.0005 +++++++++++++++++++to 6.0005
Heightened Def Con from 6.0005 +++++++++++++++++++to 6.0005
Heightened Def Con from 6.0005 +++++++++++++++++++to 6.0005
Heightened Def Con from 6.0005 +++++++++++++++++++to 6.0005
Heightened Def Con from 6.0005 +++++++++++++++++++to 6.0005
Heightened Def Con from 6.0005 +++++++++++++++++++to 6.0005
Heightened Def Con from 6.0005 +++++++++++++++++++to 6.0005
Heightened Def Con from 6.0005 +++++++++++++++++++to 6.0005
Heightened Def Con from 6.0005 +++++++++++++++++++to 6.0005
Heightened Def Con from 6.0005 +++++++++++++++++++to 6.0005
Heightened Def Con from 6.0005 +++++++++++++++++++to 6.0005
Heightened Def Con from 6.0005 +++++++++++++++++++to 6.0005
Heightened Def Con from 6.0005 +++++++++++++++++++to 6.0005
Heightened Def Con from 6.0005 +++++++++++++++++++to 6.0005
Heightened Def Con from 6.0005 +++++++++++++++++++to 6.0005
Heightened Def Con from 6.0005 +++++++++++++++++++to 6.0005
Heightened Def Con from 6.0005 +++++++++++++++++++to 6.0005
Heightened Def Con from 6.0005 +++++++++++++++++++to 6.0005
Heightened Def Con from 6.0005 +++++++++++++++++++to 6.0005
Heightened Def Con from 6.0005 +++++++++++++++++++to 6.0005
Heightened Def Con from 6.0005 +++++++++++++++++++to 6.0005
Heightened Def Con from 6.0005 +++++++++++++++++++to 6.0005
Heightened Def Con from 6.0005 +++++++++++++++++++to 6.0005
Heightened Def Con from 6.0005 +++++++++++++++++++to 6.0005
Heightened Def Con from 6.0005 +++++++++++++++++++to 6.0005
Heightened Def Con from 6.0005 +++++++++++++++++++to 6.0005
Heightened Def Con from 6.0005 +++++++++++++++++++to 6.0005
Heightened Def Con from 6.0005 +++++++++++++++++++to 6.0005
Heightened Def Con from 6.0005 +++++++++++++++++++to 6.0005
Heightened Def Con from 6.0005 +++++++++++++++++++to 6.0005
Heightened Def Con from 6.0005 +++++++++++++++++++to 6.0005
Heightened Def Con from 6.0005 +++++++++++++++++++to 6.0005
Heightened Def Con from 6.0005 +++++++++++++++++++to 6.0005
Heightened Def Con from 6.0005 +++++++++++++++++++to 6.0005
Heightened Def Con from 6.0005 +++++++++++++++++++to 6.0005
Heightened Def Con from 6.0005 +++++++++++++++++++to 6.0005
Heightened Def Con from 6.0005 +++++++++++++++++++to 6.0005
Heightened Def Con from 6.0005 +++++++++++++++++++to 6.0005
Heightened Def Con from 6.0005 +++++++++++++++++++to 6.0005
Heightened Def Con from 6.0005 +++++++++++++++++++to 6.0005
Heightened Def Con from 6.0005 +++++++++++++++++++to 6.0005
Heightened Def Con from 6.0005 +++++++++++++++++++to 6.0005
Heightened Def Con from 6.0005 +++++++++++++++++++to 6.0005
Heightened Def Con from 6.0005 +++++++++++++++++++to 6.0005
Heightened Def Con from 6.0005 +++++++++++++++++++to 6.0005
Heightened Def Con from 6.0005 +++++++++++++++++++to 6.0005
Heightened Def Con from 6.0005 +++++++++++++++++++to 6.0005
Heightened Def Con from 6.0005 +++++++++++++++++++to 6.0005
Heightened Def Con from 6.0005 +++++++++++++++++++to 6.0005
Heightened Def Con from 6.0005 +++++++++++++++++++to 6.0005
Heightened Def Con from 6.0005 +++++++++++++++++++to 6.0005
Heightened Def Con from 6.0005 +++++++++++++++++++to 6.0005
Heightened Def Con from 6.0005 +++++++++++++++++++to 6.0005
Heightened Def Con from 6.0005 +++++++++++++++++++to 6.0005
Heightened Def Con from 6.0005 +++++++++++++++++++to 6.0005
Heightened Def Con from 6.0005 +++++++++++++++++++to 6.0005
Heightened Def Con from 6.0005 +++++++++++++++++++to 6.0005
Heightened Def Con from 6.0005 +++++++++++++++++++to 6.0005
Heightened Def Con from 6.0005 +++++++++++++++++++to 6.0005
Heightened Def Con from 6.0005 +++++++++++++++++++to 6.0005
Heightened Def Con from 6.0005 +++++++++++++++++++to 6.0005
Heightened Def Con from 6.0005 +++++++++++++++++++to 6.0005
Heightened Def Con from 6.0005 +++++++++++++++++++to 6.0005
Heightened Def Con from 6.0005 +++++++++++++++++++to 6.0005
Heightened Def Con from 6.0005 +++++++++++++++++++to 6.0005
Heightened Def Con from 6.0005 +++++++++++++++++++to 6.0005
Heightened Def Con from 6.0005 +++++++++++++++++++to 6.0005
Heightened Def Con from 6.0005 +++++++++++++++++++to 6.0005
Heightened Def Con from 6.0005 +++++++++++++++++++to 6.0005
Heightened Def Con from 6.0005 +++++++++++++++++++to 6.0005
Heightened Def Con from 6.0005 +++++++++++++++++++to 6.0005
Heightened Def Con from 6.0005 +++++++++++++++++++to 6.0005
Heightened Def Con from 6.0005 +++++++++++++++++++to 6.0005
Heightened Def Con from 6.0005 +++++++++++++++++++to 6.0005
Heightened Def Con from 6.0005 +++++++++++++++++++to 6.0005
Heightened Def Con from 6.0005 +++++++++++++++++++to 6.0005
Heightened Def Con from 6.0005 +++++++++++++++++++to 6.0005
Heightened Def Con from 6.0005 +++++++++++++++++++to 6.0005
Heightened Def Con from 6.0005 +++++++++++++++++++to 6.0005
Heightened Def Con from 6.0005 +++++++++++++++++++to 6.0005
Heightened Def Con from 6.0005 +++++++++++++++++++to 6.0005
Heightened Def Con from 6.0005 +++++++++++++++++++to 6.0005
Heightened Def Con from 6.0005 +++++++++++++++++++to 6.0005
Heightened Def Con from 6.0005 +++++++++++++++++++to 6.0005
Heightened Def Con from 6.0005 +++++++++++++++++++to 6.0005
Heightened Def Con from 6.0005 +++++++++++++++++++to 6.0005
Heightened Def Con from 6.0005 +++++++++++++++++++to 6.0005
Heightened Def Con from 6.0005 +++++++++++++++++++to 6.0005
Heightened Def Con from 6.0005 +++++++++++++++++++to 6.0005
Heightened Def Con from 6.0005 +++++++++++++++++++to 6.0005
Heightened Def Con from 6.0005 +++++++++++++++++++to 6.0005
Heightened Def Con from 6.0005 +++++++++++++++++++to 6.0005
Heightened Def Con from 6.0005 +++++++++++++++++++to 6.0005
Heightened Def Con from 6.0005 +++++++++++++++++++to 6.0005
Heightened Def Con from 6.0005 +++++++++++++++++++to 6.0005
Heightened Def Con from 6.0005 +++++++++++++++++++to 6.0005
Heightened Def Con from 6.0005 +++++++++++++++++++to 6.0005
Heightened Def Con from 6.0005 +++++++++++++++++++to 6.0005
Heightened Def Con from 6.0005 +++++++++++++++++++to 6.0005
Heightened Def Con from 6.0005 ++++++++++++++++++to 6.0005

Date: Wed Dec  6 12:53:05 2023
Total elapsed time: 12.332 seconds.

tnom = 27
temp = 27
method = modified trap
totiter = 346792
traniter = 346357
tranpoints = 32929
accept = 6471
rejected = 30825
matrix size = 31
fillins = 4
solver = Normal
Avg thread counts: 3.0/3.3/2.3/1.0
Matrix Compiler1: 3.06 KB object code size  2.1/1.4/[0.5]
Matrix Compiler2: 3.73 KB object code size  0.9/1.1/[0.9]

