Circuit: * C:\Users\bathu\AppData\Local\LTspice\GT_EN_TESTING.asc

Early termination of direct N-R iteration.
Direct Newton iteration failed to find .op point.  (Use ".option noopiter" to skip.)
Starting Gmin stepping
Gmin = 10
Gmin = 1.07374
Gmin = 0.115292
Gmin = 0.0123794
Gmin = 0.00132923
Gmin = 0.000142725
Gmin = 1.5325e-05
Gmin = 1.6455e-06
Gmin = 1.76685e-07
Gmin = 1.89714e-08
Gmin = 2.03704e-09
Gmin = 2.18725e-10
Gmin = 2.34854e-11
Gmin = 2.52173e-12
Gmin = 2.70769e-13
Gmin = 0
Gmin stepping succeeded in finding the operating point.


Date: Wed Dec  6 15:46:20 2023
Total elapsed time: 0.358 seconds.

tnom = 27
temp = 27
method = modified trap
totiter = 2728
traniter = 2361
tranpoints = 1106
accept = 1091
rejected = 15
matrix size = 112
fillins = 80
solver = Normal
Avg thread counts: 2.7/3.8/3.5/2.2
Matrix Compiler1: 23.31 KB object code size  5.5/3.3/[1.7]
Matrix Compiler2: 15.07 KB object code size  2.4/2.3/[1.1]

