Circuit: * C:\Users\bathu\AppData\Local\LTspice\HA_TESTING.asc

Direct Newton iteration for .op point succeeded.

Date: Wed Dec  6 12:49:12 2023
Total elapsed time: 0.306 seconds.

tnom = 27
temp = 27
method = modified trap
totiter = 4947
traniter = 4916
tranpoints = 1299
accept = 1234
rejected = 65
matrix size = 16
fillins = 2
solver = Normal
Avg thread counts: 1.6/3.1/3.2/1.6
Matrix Compiler1: 1.15 KB object code size  0.8/0.5/[0.3]
Matrix Compiler2: 1.79 KB object code size  0.5/0.7/[0.5]

