Circuit: * C:\Users\bathu\AppData\Local\LTspice\MUX2_1_TESTING.asc

Direct Newton iteration for .op point succeeded.

Date: Wed Dec  6 12:56:06 2023
Total elapsed time: 0.285 seconds.

tnom = 27
temp = 27
method = modified trap
totiter = 5622
traniter = 5607
tranpoints = 1531
accept = 1415
rejected = 116
matrix size = 18
fillins = 0
solver = Normal
Avg thread counts: 1.5/2.8/2.9/1.5
Matrix Compiler1: 1.19 KB object code size  0.8/0.6/[0.4]
Matrix Compiler2: 1.74 KB object code size  0.6/0.8/[0.4]

