Circuit: * C:\Users\bathu\AppData\Local\LTspice\MUX3BIT_SYM_TESTING.asc

Direct Newton iteration for .op point succeeded.

Date: Wed Dec  6 13:04:26 2023
Total elapsed time: 0.810 seconds.

tnom = 27
temp = 27
method = modified trap
totiter = 9879
traniter = 9848
tranpoints = 1740
accept = 1567
rejected = 173
matrix size = 120
fillins = 8
solver = Normal
Avg thread counts: 1.3/3.0/2.7/1.3
Matrix Compiler1: 10.13 KB object code size  4.2/1.9/[1.0]
Matrix Compiler2: 13.50 KB object code size  2.1/3.1/[1.2]

