Circuit: * C:\Users\bathu\AppData\Local\LTspice\MUX3BIT_SYM.asc

WARNING: Node X1:X1:N002 is floating.
WARNING: Node X1:X2:N002 is floating.
WARNING: Node X1:X3:N002 is floating.
WARNING: Node X2:X1:N002 is floating.
WARNING: Node X2:X2:N002 is floating.
WARNING: Node X2:X3:N002 is floating.
WARNING: Node X3:X1:N002 is floating.
WARNING: Node X3:X2:N002 is floating.
WARNING: Node X3:X3:N002 is floating.

WARNING: Less than two connections to node vdd.  This node is used by v1.
Early termination of direct N-R iteration.
Direct Newton iteration failed to find .op point.  (Use ".option noopiter" to skip.)
Starting Gmin stepping
Gmin = 10
Gmin = 1.07374
Gmin = 0.115292
Gmin = 0.0123794
Gmin = 0.00132923
Gmin = 0.000142725
Gmin = 1.5325e-05
Gmin = 1.6455e-06
Gmin = 1.76685e-07
Gmin = 1.89714e-08
Gmin = 2.03704e-09
Gmin = 2.18725e-10
Gmin = 2.34854e-11
Gmin = 2.52173e-12
Gmin = 2.70769e-13
Gmin = 0
Gmin stepping succeeded in finding the operating point.


Date: Mon Nov 27 16:31:21 2023
Total elapsed time: 0.235 seconds.

tnom = 27
temp = 27
method = modified trap
totiter = 2394
traniter = 2096
tranpoints = 1049
accept = 1049
rejected = 0
matrix size = 130
fillins = 10
solver = Normal
Avg thread counts: 3.9/3.7/3.6/2.3
Matrix Compiler1: 15.80 KB object code size  2.1/1.1/[0.7]
Matrix Compiler2: 14.21 KB object code size  0.7/3.0/[0.5]

