Circuit: * C:\Users\bathu\AppData\Local\LTspice\MUX4_1_TESTING.asc

Direct Newton iteration for .op point succeeded.

Date: Wed Dec  6 12:57:59 2023
Total elapsed time: 2.155 seconds.

tnom = 27
temp = 27
method = modified trap
totiter = 42585
traniter = 42560
tranpoints = 8393
accept = 6629
rejected = 1764
matrix size = 44
fillins = 0
solver = Normal
Avg thread counts: 3.0/2.2/1.4/1.1
Matrix Compiler1: 3.42 KB object code size  2.2/1.3/[0.6]
Matrix Compiler2: 4.68 KB object code size  1.2/1.7/[0.8]

