Circuit: * C:\Users\bathu\AppData\Local\LTspice\MUX_8_1_TESTING.asc

Direct Newton iteration for .op point succeeded.
Heightened Def Con from 7.04201 ++++++++++++++++++++++to 7.04201
Heightened Def Con from 7.04201 ++++++++++++++++to 7.04201
Heightened Def Con from 7.04201 +++to 7.04201

Date: Wed Dec  6 13:14:23 2023
Total elapsed time: 1.047 seconds.

tnom = 27
temp = 27
method = modified trap
totiter = 16915
traniter = 16884
tranpoints = 2964
accept = 2305
rejected = 703
matrix size = 91
fillins = 138
solver = Normal
Avg thread counts: 1.2/4.0/2.2/1.2
Matrix Compiler1: 15.89 KB object code size  6.4/4.1/[2.3]
Matrix Compiler2: 12.57 KB object code size  2.5/2.6/[1.0]

