Circuit: * C:\Users\bathu\AppData\Local\LTspice\NOT_SYM_TESTING.asc

Direct Newton iteration for .op point succeeded.

Date: Wed Dec  6 12:32:24 2023
Total elapsed time: 0.218 seconds.

tnom = 27
temp = 27
method = modified trap
totiter = 2158
traniter = 2151
tranpoints = 1062
accept = 1058
rejected = 4
matrix size = 5
fillins = 0
solver = Normal
Avg thread counts: 2.3/3.6/3.6/2.3
Matrix Compiler1: 150 bytes object code size  0.2/0.2/[0.2]
Matrix Compiler2: 335 bytes object code size  0.2/0.2/[0.1]

