Circuit: * C:\Users\bathu\AppData\Local\LTspice\OR_TESTING.asc

Direct Newton iteration for .op point succeeded.

Date: Wed Dec  6 12:37:18 2023
Total elapsed time: 0.159 seconds.

tnom = 27
temp = 27
method = modified trap
totiter = 2395
traniter = 2380
tranpoints = 1142
accept = 1117
rejected = 25
matrix size = 9
fillins = 0
solver = Normal
Avg thread counts: 2.1/3.4/3.4/2.1
Matrix Compiler1: 368 bytes object code size  0.4/0.3/[0.2]
Matrix Compiler2: 749 bytes object code size  0.2/0.4/[0.2]

