Circuit: * C:\Users\bathu\Downloads\GOOGLE_CHROME\EENG_5540\PROJECT2\LTSPICE_FILES\PART_2_A_TESTING.asc

Early termination of direct N-R iteration.
Direct Newton iteration failed to find .op point.  (Use ".option noopiter" to skip.)
Starting Gmin stepping
Gmin = 10
Gmin = 1.07374
Gmin = 0.115292
Gmin = 0.0123794
Gmin = 0.00132923
Gmin = 0.000142725
Gmin = 1.5325e-05
Gmin = 1.6455e-06
Gmin = 1.76685e-07
Gmin = 1.89714e-08
Gmin = 2.03704e-09
Gmin = 2.18725e-10
Gmin = 2.34854e-11
Gmin = 2.52173e-12
Gmin = 2.70769e-13
Gmin = 0
Gmin stepping succeeded in finding the operating point.


Date: Wed Dec  6 23:29:17 2023
Total elapsed time: 20.198 seconds.

tnom = 27
temp = 27
method = modified trap
totiter = 2606
traniter = 2092
tranpoints = 1047
accept = 1047
rejected = 0
matrix size = 3750
fillins = 6954
solver = Normal
Avg thread counts: 7.6/3.7/3.7/3.3
Matrix Compiler1: 1.34 MB object code size  842.3/376.9/[308.8]
Matrix Compiler2: 609.51 KB object code size  205.4/146.1/[125.2]

