Circuit: * C:\Users\bathu\AppData\Local\LTspice\PART_A_SYM.asc

WARNING: Node X2:NC_01 is floating.
WARNING: Node X2:NC_02 is floating.

Early termination of direct N-R iteration.
Direct Newton iteration failed to find .op point.  (Use ".option noopiter" to skip.)
Starting Gmin stepping
Gmin = 10
Gmin = 1.07374
Gmin = 0.115292
Gmin = 0.0123794
Gmin = 0.00132923
Gmin = 0.000142725
Gmin = 1.5325e-05
Gmin = 1.6455e-06
Gmin = 1.76685e-07
Gmin = 1.89714e-08
Gmin = 2.03704e-09
Gmin = 2.18725e-10
Gmin = 2.34854e-11
Gmin = 2.52173e-12
Gmin = 2.70769e-13
Gmin = 0
Gmin stepping succeeded in finding the operating point.


Date: Wed Nov 29 13:24:56 2023
Total elapsed time: 1.386 seconds.

tnom = 27
temp = 27
method = modified trap
totiter = 2565
traniter = 2102
tranpoints = 1052
accept = 1052
rejected = 0
matrix size = 894
fillins = 1062
solver = Normal
Avg thread counts: 3.3/3.8/3.8/2.3
Matrix Compiler1: 165.77 KB object code size  51.9/22.3/[14.8]
Matrix Compiler2: 132.21 KB object code size  18.7/14.0/[8.1]

