Circuit: * C:\Users\bathu\Downloads\GOOGLE CHROME\PROJECTS\PROJECTS\EENG_5540_PROJECT2\LTSPICE_FILES\PART_2_B_TESTING.asc

Early termination of direct N-R iteration.
Direct Newton iteration failed to find .op point.  (Use ".option noopiter" to skip.)
Starting Gmin stepping
Gmin = 10
Gmin = 1.07374
Gmin = 0.115292
Gmin = 0.0123794
Gmin = 0.00132923
Gmin = 0.000142725
Gmin = 1.5325e-05
Gmin = 1.6455e-06
vernier = 0.5
vernier = 0.25
vernier = 0.333333
Gmin = 8.97392e-07
vernier = 0.444444
Gmin = 3.55128e-07
vernier = 0.592592
vernier = 0.790123
Gmin = 8.12418e-08
vernier = 1
Gmin = 9.92087e-09
Gmin = 1.06525e-09
Gmin = 1.1438e-10
Gmin = 1.22814e-11
Gmin = 1.31871e-12
Gmin = 1.41595e-13
Gmin = 0
Gmin stepping succeeded in finding the operating point.


Date: Fri Feb 21 10:46:50 2025
Total elapsed time: 2.274 seconds.

tnom = 27
temp = 27
method = modified trap
totiter = 2871
traniter = 2094
tranpoints = 1048
accept = 1048
rejected = 0
matrix size = 925
fillins = 1954
solver = Normal
Avg thread counts: 2.8/3.8/3.8/2.3
Matrix Compiler1: 368.91 KB object code size  76.6/39.5/[25.0]
Matrix Compiler2: 151.36 KB object code size  14.7/15.2/[9.3]

