Circuit: * C:\Users\bathu\AppData\Local\LTspice\PART_2_A_SYM.asc

Early termination of direct N-R iteration.
Direct Newton iteration failed to find .op point.  (Use ".option noopiter" to skip.)
Starting Gmin stepping
Gmin = 10
Gmin = 1.07374
Gmin = 0.115292
Gmin = 0.0123794
Gmin = 0.00132923
Gmin = 0.000142725
Gmin = 1.5325e-05
Gmin = 1.6455e-06
Gmin = 1.76685e-07
Gmin = 1.89714e-08
Gmin = 2.03704e-09
Gmin = 2.18725e-10
Gmin = 2.34854e-11
Gmin = 2.52173e-12
Gmin = 2.70769e-13
Gmin = 0
Gmin stepping succeeded in finding the operating point.


Date: Fri Dec  1 21:15:24 2023
Total elapsed time: 8.286 seconds.

tnom = 27
temp = 27
method = modified trap
totiter = 2566
traniter = 2092
tranpoints = 1047
accept = 1047
rejected = 0
matrix size = 3829
fillins = 6800
solver = Normal
Avg thread counts: 4.0/3.8/3.8/2.3
Matrix Compiler1: 1.85 MB object code size  522.9/310.3/[275.9]
Matrix Compiler2:   45346 opcodes  126.5/[82.6]/91.8

