Circuit: * C:\Users\bathu\AppData\Local\LTspice\PART_1_SYM_TESTING.asc

Early termination of direct N-R iteration.
Direct Newton iteration failed to find .op point.  (Use ".option noopiter" to skip.)
Starting Gmin stepping
Gmin = 10
Gmin = 1.07374
Gmin = 0.115292
Gmin = 0.0123794
Gmin = 0.00132923
Gmin = 0.000142725
Gmin = 1.5325e-05
Gmin = 1.6455e-06
Gmin = 1.76685e-07
Gmin = 1.89714e-08
Gmin = 2.03704e-09
Gmin = 2.18725e-10
Gmin = 2.34854e-11
Gmin = 2.52173e-12
Gmin = 2.70769e-13
Gmin = 0
Gmin stepping succeeded in finding the operating point.


Date: Wed Dec  6 18:17:53 2023
Total elapsed time: 4.805 seconds.

tnom = 27
temp = 27
method = modified trap
totiter = 8294
traniter = 7814
tranpoints = 1648
accept = 1498
rejected = 150
matrix size = 877
fillins = 1058
solver = Normal
Avg thread counts: 2.2/5.2/5.0/1.3
Matrix Compiler1: 160.18 KB object code size  77.7/31.3/[16.9]
Matrix Compiler2: 129.68 KB object code size  31.7/22.2/[16.0]

