Circuit: * C:\Users\bathu\AppData\Local\LTspice\XNOR_SYM_TESTING.asc

Direct Newton iteration for .op point succeeded.

Date: Wed Dec  6 12:42:19 2023
Total elapsed time: 0.291 seconds.

tnom = 27
temp = 27
method = modified trap
totiter = 4212
traniter = 4181
tranpoints = 1230
accept = 1183
rejected = 47
matrix size = 12
fillins = 2
solver = Normal
Avg thread counts: 1.7/3.2/3.3/1.7
Matrix Compiler1: 874 bytes object code size  0.8/0.5/[0.4]
Matrix Compiler2: off  [0.4]/0.7/0.5

