Circuit: * C:\Users\bathu\AppData\Local\LTspice\XOR_SYM_TESTING.asc

Direct Newton iteration for .op point succeeded.

Date: Wed Dec  6 12:39:13 2023
Total elapsed time: 0.261 seconds.

tnom = 27
temp = 27
method = modified trap
totiter = 4446
traniter = 4415
tranpoints = 1270
accept = 1213
rejected = 57
matrix size = 13
fillins = 2
solver = Normal
Avg thread counts: 1.6/3.1/3.2/1.6
Matrix Compiler1: 960 bytes object code size  0.6/0.4/[0.3]
Matrix Compiler2: off  [0.3]/0.5/0.6

